
 OpenBabel11282017443D

 47 49  0  0  1  0  0  0  0  0999 V2000
    1.9029    0.6474   -0.6302 O   0  0  0  0  0  0  0  0  0  0  0  0
   -0.8515    2.9012   -1.5443 O   0  0  0  0  0  0  0  0  0  0  0  0
    0.0767    1.0381   -3.5575 O   0  0  0  0  0  0  0  0  0  0  0  0
    1.3630    2.9655   -5.2423 O   0  0  0  0  0  0  0  0  0  0  0  0
    3.8262   -2.5678    2.4198 O   0  0  0  0  0  0  0  0  0  0  0  0
    4.0719    1.6459    3.6014 O   0  0  0  0  0  0  0  0  0  0  0  0
    0.2734    0.2515    1.6171 N   0  0  0  0  0  0  0  0  0  0  0  0
    1.1703   -2.2516    1.7387 N   0  0  0  0  0  0  0  0  0  0  0  0
    2.2137    0.9294    2.6950 N   0  0  0  0  0  0  0  0  0  0  0  0
    3.9507   -0.4760    3.0014 N   0  0  0  0  0  0  0  0  0  0  0  0
    0.5738    1.1771   -0.5997 C   0  0  1  0  0  0  0  0  0  0  0  0
    0.1351    1.4563    0.8705 C   0  0  0  0  0  0  0  0  0  0  0  0
    0.4819    2.3907   -1.5568 C   0  0  1  0  0  0  0  0  0  0  0  0
    0.9156    2.0583   -3.0132 C   0  0  2  0  0  0  0  0  0  0  0  0
   -0.6370   -0.7598    1.4422 C   0  0  0  0  0  0  0  0  0  0  0  0
    1.4577    0.0017    2.1888 C   0  0  0  0  0  0  0  0  0  0  0  0
   -0.1161   -2.0806    1.4083 C   0  0  0  0  0  0  0  0  0  0  0  0
   -2.0269   -0.6085    1.2277 C   0  0  0  0  0  0  0  0  0  0  0  0
    1.9527   -1.3024    2.1356 C   0  0  0  0  0  0  0  0  0  0  0  0
    0.9131    3.2970   -3.9347 C   0  0  0  0  0  0  0  0  0  0  0  0
   -2.8868   -1.6926    0.9242 C   0  0  0  0  0  0  0  0  0  0  0  0
   -0.9365   -3.1667    1.0564 C   0  0  0  0  0  0  0  0  0  0  0  0
   -2.3236   -2.9980    0.8166 C   0  0  0  0  0  0  0  0  0  0  0  0
    3.2617   -1.4879    2.5152 C   0  0  0  0  0  0  0  0  0  0  0  0
   -4.3205   -1.3279    0.7448 C   0  0  0  0  0  0  0  0  0  0  0  0
   -3.0691   -4.2419    0.4844 C   0  0  0  0  0  0  0  0  0  0  0  0
    3.4299    0.7217    3.1296 C   0  0  0  0  0  0  0  0  0  0  0  0
   -0.0700    0.3912   -1.0042 H   0  0  0  0  0  0  0  0  0  0  0  0
   -0.8754    1.8651    0.8996 H   0  0  0  0  0  0  0  0  0  0  0  0
    0.7272    2.2958    1.2478 H   0  0  0  0  0  0  0  0  0  0  0  0
    1.1330    3.1769   -1.1644 H   0  0  0  0  0  0  0  0  0  0  0  0
    1.9352    1.6619   -3.0025 H   0  0  0  0  0  0  0  0  0  0  0  0
   -2.4310    0.3274    1.2978 H   0  0  0  0  0  0  0  0  0  0  0  0
    1.5772    4.0651   -3.5323 H   0  0  0  0  0  0  0  0  0  0  0  0
   -0.0935    3.7117   -4.0121 H   0  0  0  0  0  0  0  0  0  0  0  0
   -0.5041   -4.0930    0.9851 H   0  0  0  0  0  0  0  0  0  0  0  0
    2.4727    1.3286   -0.2153 H   0  0  0  0  0  0  0  0  0  0  0  0
   -1.4155    2.1555   -1.8402 H   0  0  0  0  0  0  0  0  0  0  0  0
    0.4813    0.7886   -4.4145 H   0  0  0  0  0  0  0  0  0  0  0  0
   -4.4269   -0.6386   -0.0959 H   0  0  0  0  0  0  0  0  0  0  0  0
   -4.6904   -0.8294    1.6437 H   0  0  0  0  0  0  0  0  0  0  0  0
   -5.0044   -2.1499    0.5586 H   0  0  0  0  0  0  0  0  0  0  0  0
   -2.6762   -4.6808   -0.4350 H   0  0  0  0  0  0  0  0  0  0  0  0
   -2.9525   -4.9670    1.2924 H   0  0  0  0  0  0  0  0  0  0  0  0
   -4.1386   -4.1284    0.3347 H   0  0  0  0  0  0  0  0  0  0  0  0
    4.8405   -0.6077    3.2584 H   0  0  0  0  0  0  0  0  0  0  0  0
    1.3091    3.8069   -5.7413 H   0  0  0  0  0  0  0  0  0  0  0  0
  1 11  1  0  0  0  0
  1 37  1  0  0  0  0
  2 13  1  0  0  0  0
  2 38  1  0  0  0  0
  3 14  1  0  0  0  0
  3 39  1  0  0  0  0
  4 20  1  0  0  0  0
  4 47  1  0  0  0  0
  5 24  2  0  0  0  0
  6 27  2  0  0  0  0
  7 12  1  0  0  0  0
  7 15  1  0  0  0  0
  7 16  1  0  0  0  0
  8 17  1  0  0  0  0
  8 19  2  0  0  0  0
  9 16  2  0  0  0  0
  9 27  1  0  0  0  0
 10 24  1  0  0  0  0
 10 27  1  0  0  0  0
 10 46  1  0  0  0  0
 11 12  1  0  0  0  0
 11 13  1  0  0  0  0
 11 28  1  6  0  0  0
 12 29  1  0  0  0  0
 12 30  1  0  0  0  0
 13 14  1  0  0  0  0
 13 31  1  1  0  0  0
 14 20  1  0  0  0  0
 14 32  1  1  0  0  0
 15 17  2  0  0  0  0
 15 18  1  0  0  0  0
 16 19  1  0  0  0  0
 17 22  1  0  0  0  0
 18 21  2  0  0  0  0
 18 33  1  0  0  0  0
 19 24  1  0  0  0  0
 20 34  1  0  0  0  0
 20 35  1  0  0  0  0
 21 23  1  0  0  0  0
 21 25  1  0  0  0  0
 22 23  2  0  0  0  0
 22 36  1  0  0  0  0
 23 26  1  0  0  0  0
 25 40  1  0  0  0  0
 25 41  1  0  0  0  0
 25 42  1  0  0  0  0
 26 43  1  0  0  0  0
 26 44  1  0  0  0  0
 26 45  1  0  0  0  0
M  END
