
 OpenBabel01312113373D

  4  3  0  0  0  0  0  0  0  0999 V2000
   -1.1524    0.9458    0.0184 N   0  0  0  0  0  0  0  0  0  0  0  0
   -0.1093    0.9513   -0.0013 H   0  0  0  0  0  0  0  0  0  0  0  0
   -1.4904    0.2662   -0.6973 H   0  0  0  0  0  0  0  0  0  0  0  0
   -1.4904    1.8966   -0.2467 H   0  0  0  0  0  0  0  0  0  0  0  0
  1  2  1  0  0  0  0
  1  3  1  0  0  0  0
  1  4  1  0  0  0  0
M  END
